Circuit: * C:\Users\user\OneDrive\Documentos\tarea\Circuito\sim3-rf\opamp-top.asc

Ignoring BSIM parameter XL
Ignoring BSIM parameter XW
Ignoring BSIM parameter XL
Ignoring BSIM parameter XW
Warning: Pd = 0 is less than W.
Warning: Ps = 0 is less than W.
Warning: Pd = 0 is less than W.
Warning: Ps = 0 is less than W.
Warning: Pd = 0 is less than W.
Warning: Ps = 0 is less than W.
Warning: Pd = 0 is less than W.
Warning: Ps = 0 is less than W.
Direct Newton iteration for .op point succeeded.

Date: Wed Oct  4 00:04:46 2023
Total elapsed time: 0.060 seconds.

tnom = 27
temp = 27
method = trap
totiter = 17
traniter = 0
tranpoints = 0
accept = 0
rejected = 0
matrix size = 12
fillins = 12
solver = Normal
Avg thread counts: 16.0/0.0/16.0/7.3
Matrix Compiler1:      90 opcodes
Matrix Compiler2: 1.38 KB object code size
